<?xml version="1.0" encoding="UTF-8"?>

<!-- generated on 2022-07-06 09:01:20 by Eclipse SUMO GUI Version 1.13.0
-->

<configuration xmlns:xsi="http://www.w3.org/2001/XMLSchema-instance" xsi:noNamespaceSchemaLocation="http://sumo.dlr.de/xsd/sumoConfiguration.xsd">

    <input>
        <net-file value="../testOneLine/guiyang.net.xml"/>
        <additional-files value="./stops/stops_000.add.xml,./stops/stops_001.add.xml,./stops/stops_002.add.xml,./stops/stops_003.add.xml,./stops/stops_004.add.xml,./stops/stops_005.add.xml,./stops/stops_006.add.xml,./stops/stops_007.add.xml,./stops/stops_008.add.xml,./stops/stops_009.add.xml,./stops/stops_010.add.xml,./stops/stops_011.add.xml,./stops/stops_012.add.xml,./stops/stops_013.add.xml,./stops/stops_014.add.xml,./stops/stops_015.add.xml,./stops/stops_016.add.xml,./stops/stops_017.add.xml,./stops/stops_018.add.xml,./stops/stops_019.add.xml,./stops/stops_020.add.xml,./stops/stops_021.add.xml,./stops/stops_022.add.xml,./stops/stops_023.add.xml,./stops/stops_024.add.xml,./stops/stops_025.add.xml,./stops/stops_026.add.xml,./stops/stops_027.add.xml,./stops/stops_028.add.xml,./stops/stops_029.add.xml,./stops/stops_030.add.xml,./stops/stops_031.add.xml,./stops/stops_032.add.xml,./stops/stops_033.add.xml,./stops/stops_034.add.xml,./stops/stops_035.add.xml,./stops/stops_036.add.xml,./stops/stops_037.add.xml,./stops/stops_038.add.xml,./stops/stops_039.add.xml,./stops/stops_040.add.xml,./stops/stops_041.add.xml,./stops/stops_042.add.xml,./stops/stops_043.add.xml,./stops/stops_044.add.xml,./stops/stops_045.add.xml,./stops/stops_046.add.xml,./stops/stops_047.add.xml,./stops/stops_048.add.xml,./stops/stops_049.add.xml,./stops/stops_050.add.xml,./stops/stops_051.add.xml,./stops/stops_052.add.xml,./stops/stops_053.add.xml,./stops/stops_054.add.xml,./stops/stops_055.add.xml,./stops/stops_056.add.xml,./stops/stops_057.add.xml,./stops/stops_058.add.xml,./stops/stops_059.add.xml,./stops/stops_060.add.xml,./stops/stops_061.add.xml,./stops/stops_062.add.xml,./stops/stops_063.add.xml,./stops/stops_064.add.xml,./stops/stops_065.add.xml,./stops/stops_066.add.xml,./stops/stops_067.add.xml,./stops/stops_068.add.xml,./stops/stops_069.add.xml,./stops/stops_070.add.xml,./stops/stops_071.add.xml,./stops/stops_072.add.xml,./stops/stops_073.add.xml,./stops/stops_074.add.xml,./stops/stops_075.add.xml,./stops/stops_076.add.xml,./stops/stops_077.add.xml,./stops/stops_078.add.xml,./stops/stops_079.add.xml,./stops/stops_080.add.xml,./stops/stops_081.add.xml,./stops/stops_082.add.xml,./stops/stops_083.add.xml,./stops/stops_084.add.xml,./stops/stops_085.add.xml,./stops/stops_086.add.xml,./stops/stops_087.add.xml,./stops/stops_088.add.xml,./stops/stops_089.add.xml,./stops/stops_090.add.xml,./stops/stops_091.add.xml,./stops/stops_092.add.xml,./stops/stops_093.add.xml,./stops/stops_094.add.xml,./stops/stops_095.add.xml,./stops/stops_096.add.xml,./stops/stops_097.add.xml,./stops/stops_098.add.xml,./stops/stops_099.add.xml,./stops/stops_100.add.xml,./stops/stops_101.add.xml,./stops/stops_102.add.xml,./stops/stops_103.add.xml,./stops/stops_104.add.xml,./stops/stops_105.add.xml,./stops/stops_106.add.xml,./stops/stops_107.add.xml,./stops/stops_108.add.xml,./stops/stops_109.add.xml,./stops/stops_110.add.xml,./stops/stops_111.add.xml,./stops/stops_112.add.xml,./stops/stops_113.add.xml,./stops/stops_114.add.xml,./stops/stops_115.add.xml,./stops/stops_116.add.xml,./stops/stops_117.add.xml,./stops/stops_118.add.xml,./stops/stops_119.add.xml,./stops/stops_120.add.xml,./stops/stops_121.add.xml,./stops/stops_122.add.xml,./stops/stops_123.add.xml,./stops/stops_124.add.xml,./stops/stops_125.add.xml,./stops/stops_126.add.xml,./stops/stops_127.add.xml,./stops/stops_128.add.xml,./stops/stops_129.add.xml,./stops/stops_130.add.xml,./stops/stops_131.add.xml,./stops/stops_132.add.xml,./stops/stops_133.add.xml,./stops/stops_134.add.xml,./stops/stops_135.add.xml,./stops/stops_136.add.xml,./stops/stops_137.add.xml,./stops/stops_138.add.xml,./stops/stops_139.add.xml,./stops/stops_140.add.xml,./stops/stops_141.add.xml,./stops/stops_142.add.xml,./stops/stops_143.add.xml,./stops/stops_144.add.xml,./stops/stops_145.add.xml,./stops/stops_146.add.xml,./stops/stops_147.add.xml,./stops/stops_148.add.xml,./stops/stops_149.add.xml,./stops/stops_150.add.xml,./stops/stops_151.add.xml,./stops/stops_152.add.xml,./stops/stops_153.add.xml,./stops/stops_154.add.xml,./stops/stops_155.add.xml,./stops/stops_156.add.xml,./stops/stops_157.add.xml,./stops/stops_158.add.xml,./stops/stops_159.add.xml,./stops/stops_160.add.xml,./stops/stops_161.add.xml,./stops/stops_162.add.xml,./stops/stops_163.add.xml,./stops/stops_164.add.xml,./stops/stops_165.add.xml,./stops/stops_166.add.xml,./stops/stops_167.add.xml,./stops/stops_168.add.xml,./stops/stops_169.add.xml,./stops/stops_170.add.xml,./stops/stops_171.add.xml,./stops/stops_172.add.xml,./stops/stops_173.add.xml,./stops/stops_174.add.xml,./stops/stops_175.add.xml,./stops/stops_176.add.xml,./stops/stops_177.add.xml,./stops/stops_178.add.xml,./stops/stops_179.add.xml,./stops/stops_180.add.xml,./stops/stops_181.add.xml,./stops/stops_182.add.xml,./stops/stops_183.add.xml,./stops/stops_184.add.xml,./stops/stops_185.add.xml,./stops/stops_186.add.xml,./stops/stops_187.add.xml,./stops/stops_188.add.xml,./stops/stops_189.add.xml,./stops/stops_190.add.xml,./stops/stops_191.add.xml,./stops/stops_192.add.xml,./stops/stops_193.add.xml,./stops/stops_194.add.xml,./stops/stops_195.add.xml,./stops/stops_196.add.xml,./stops/stops_197.add.xml,./stops/stops_198.add.xml,./stops/stops_199.add.xml,./stops/stops_200.add.xml,./stops/stops_201.add.xml,./stops/stops_202.add.xml,./stops/stops_203.add.xml,./stops/stops_204.add.xml,./stops/stops_205.add.xml,./stops/stops_206.add.xml,./stops/stops_207.add.xml,./stops/stops_208.add.xml,./stops/stops_209.add.xml,./stops/stops_210.add.xml,./stops/stops_211.add.xml,./stops/stops_212.add.xml,./stops/stops_213.add.xml,./stops/stops_214.add.xml,./stops/stops_215.add.xml,./stops/stops_216.add.xml,./stops/stops_217.add.xml,./stops/stops_218.add.xml,./stops/stops_219.add.xml,./stops/stops_220.add.xml,./stops/stops_221.add.xml,./stops/stops_222.add.xml,./stops/stops_223.add.xml,./stops/stops_224.add.xml,./stops/stops_225.add.xml,./stops/stops_226.add.xml,./stops/stops_227.add.xml,./stops/stops_228.add.xml,./stops/stops_229.add.xml,./stops/stops_230.add.xml,./stops/stops_231.add.xml,./stops/stops_232.add.xml,./stops/stops_233.add.xml,./stops/stops_234.add.xml,./stops/stops_235.add.xml,./stops/stops_236.add.xml,./stops/stops_237.add.xml,./stops/stops_238.add.xml,./stops/stops_239.add.xml,./stops/stops_240.add.xml,./stops/stops_241.add.xml,./stops/stops_242.add.xml,./stops/stops_243.add.xml,./stops/stops_244.add.xml,./stops/stops_245.add.xml,./stops/stops_246.add.xml,./stops/stops_247.add.xml,./stops/stops_248.add.xml,./stops/stops_249.add.xml,./stops/stops_250.add.xml,./stops/stops_251.add.xml,./stops/stops_252.add.xml,./stops/stops_253.add.xml,./stops/stops_254.add.xml,./stops/stops_255.add.xml,./stops/stops_256.add.xml,./stops/stops_257.add.xml,./stops/stops_258.add.xml,./stops/stops_259.add.xml,./stops/stops_260.add.xml,./stops/stops_261.add.xml,./stops/stops_262.add.xml,./stops/stops_263.add.xml,./stops/stops_264.add.xml,./stops/stops_265.add.xml,./stops/stops_266.add.xml,./stops/stops_267.add.xml,./stops/stops_268.add.xml,./stops/stops_269.add.xml,./stops/stops_270.add.xml,./stops/stops_271.add.xml,./stops/stops_272.add.xml,./stops/stops_273.add.xml,./stops/stops_274.add.xml,./stops/stops_275.add.xml,./stops/stops_276.add.xml,./stops/stops_277.add.xml,./stops/stops_278.add.xml,./stops/stops_279.add.xml,./stops/stops_280.add.xml,./stops/stops_281.add.xml,./stops/stops_282.add.xml,./stops/stops_283.add.xml,./stops/stops_284.add.xml,./stops/stops_285.add.xml,./stops/stops_286.add.xml,./stops/stops_287.add.xml,./stops/stops_288.add.xml,./stops/stops_289.add.xml,./stops/stops_290.add.xml,./stops/stops_291.add.xml,./stops/stops_292.add.xml,./stops/stops_293.add.xml,./stops/stops_294.add.xml,./stops/stops_295.add.xml,./stops/stops_296.add.xml,./stops/stops_297.add.xml,./stops/stops_298.add.xml,./stops/stops_299.add.xml,./stops/stops_300.add.xml,./stops/stops_301.add.xml,./stops/stops_302.add.xml,./stops/stops_303.add.xml,./stops/stops_304.add.xml,./stops/stops_305.add.xml,./stops/stops_306.add.xml,./stops/stops_307.add.xml,./stops/stops_308.add.xml,./stops/stops_309.add.xml,./stops/stops_310.add.xml,./stops/stops_311.add.xml,./stops/stops_312.add.xml,./stops/stops_313.add.xml,./stops/stops_314.add.xml,./stops/stops_315.add.xml,./stops/stops_316.add.xml,./stops/stops_317.add.xml,./stops/stops_318.add.xml,./stops/stops_319.add.xml,./stops/stops_320.add.xml,./stops/stops_321.add.xml,./stops/stops_322.add.xml,./stops/stops_323.add.xml,./stops/stops_324.add.xml,./stops/stops_325.add.xml,./stops/stops_326.add.xml,./stops/stops_327.add.xml,./stops/stops_328.add.xml,./stops/stops_329.add.xml,./stops/stops_330.add.xml,./stops/stops_331.add.xml,./stops/stops_332.add.xml,./stops/stops_333.add.xml,./stops/stops_334.add.xml,./stops/stops_335.add.xml,./stops/stops_336.add.xml,./stops/stops_337.add.xml,./stops/stops_338.add.xml,./stops/stops_339.add.xml,./stops/stops_340.add.xml,./stops/stops_341.add.xml,./stops/stops_342.add.xml,./stops/stops_343.add.xml,./stops/stops_344.add.xml,./stops/stops_345.add.xml,./stops/stops_346.add.xml,./stops/stops_347.add.xml,./stops/stops_348.add.xml,./stops/stops_349.add.xml,./stops/stops_350.add.xml,./stops/stops_351.add.xml,./stops/stops_352.add.xml,./stops/stops_353.add.xml,./stops/stops_354.add.xml,./stops/stops_355.add.xml,./stops/stops_356.add.xml,./stops/stops_357.add.xml,./stops/stops_358.add.xml,./stops/stops_359.add.xml,./stops/stops_360.add.xml,./stops/stops_361.add.xml,./stops/stops_362.add.xml,./stops/stops_363.add.xml,./stops/stops_364.add.xml,./stops/stops_365.add.xml,./stops/stops_366.add.xml,./stops/stops_367.add.xml,./stops/stops_368.add.xml,./stops/stops_369.add.xml,./stops/stops_370.add.xml,./stops/stops_371.add.xml,./stops/stops_372.add.xml,./stops/stops_373.add.xml,./stops/stops_374.add.xml,./stops/stops_375.add.xml,./stops/stops_376.add.xml,./stops/stops_377.add.xml,./stops/stops_378.add.xml,./stops/stops_379.add.xml,./stops/stops_380.add.xml,./stops/stops_381.add.xml,./stops/stops_382.add.xml,./stops/stops_383.add.xml,./stops/stops_384.add.xml,./stops/stops_385.add.xml,./stops/stops_386.add.xml,./stops/stops_387.add.xml,./stops/stops_388.add.xml,./stops/stops_389.add.xml,./stops/stops_390.add.xml,./stops/stops_391.add.xml,./stops/stops_392.add.xml,./stops/stops_393.add.xml,./stops/stops_394.add.xml,./stops/stops_395.add.xml,./stops/stops_396.add.xml,./stops/stops_397.add.xml,./stops/stops_398.add.xml,./stops/stops_399.add.xml,./stops/stops_400.add.xml,./stops/stops_401.add.xml,./stops/stops_402.add.xml,./stops/stops_403.add.xml,./stops/stops_404.add.xml,./stops/stops_405.add.xml,./stops/stops_406.add.xml,./stops/stops_407.add.xml,./stops/stops_408.add.xml,./stops/stops_409.add.xml,./stops/stops_410.add.xml,./stops/stops_411.add.xml,./stops/stops_412.add.xml,./stops/stops_413.add.xml,./stops/stops_414.add.xml,./stops/stops_415.add.xml,./stops/stops_416.add.xml,./stops/stops_417.add.xml,./stops/stops_418.add.xml,./stops/stops_419.add.xml,./stops/stops_420.add.xml,./stops/stops_421.add.xml,./stops/stops_422.add.xml,./stops/stops_423.add.xml,./stops/stops_424.add.xml,./stops/stops_425.add.xml,./stops/stops_426.add.xml,./stops/stops_427.add.xml,./stops/stops_428.add.xml,./stops/stops_429.add.xml,./stops/stops_430.add.xml,./stops/stops_431.add.xml,./stops/stops_432.add.xml,./stops/stops_433.add.xml,./stops/stops_434.add.xml,./stops/stops_435.add.xml,./stops/stops_436.add.xml,./stops/stops_437.add.xml,./stops/stops_438.add.xml,./stops/stops_439.add.xml,./stops/stops_440.add.xml,./stops/stops_441.add.xml,./stops/stops_442.add.xml,./stops/stops_443.add.xml,./stops/stops_444.add.xml,./stops/stops_445.add.xml,./stops/stops_446.add.xml,./stops/stops_447.add.xml,./stops/stops_448.add.xml,./stops/stops_449.add.xml,./stops/stops_450.add.xml,./stops/stops_451.add.xml,./stops/stops_452.add.xml,./stops/stops_453.add.xml,./stops/stops_454.add.xml,./stops/stops_455.add.xml,./stops/stops_456.add.xml,./stops/stops_457.add.xml,./stops/stops_458.add.xml,./stops/stops_459.add.xml,./stops/stops_460.add.xml,./stops/stops_461.add.xml,./stops/stops_462.add.xml,./stops/stops_463.add.xml,./stops/stops_464.add.xml,./stops/stops_465.add.xml,./stops/stops_466.add.xml,./stops/stops_467.add.xml,./stops/stops_468.add.xml,./stops/stops_469.add.xml,./stops/stops_470.add.xml,./stops/stops_471.add.xml,./stops/stops_472.add.xml,./stops/stops_473.add.xml,./stops/stops_474.add.xml,./stops/stops_475.add.xml,./stops/stops_476.add.xml,./stops/stops_477.add.xml,./stops/stops_478.add.xml,./stops/stops_479.add.xml,./stops/stops_480.add.xml,./stops/stops_481.add.xml,./stops/stops_482.add.xml,./stops/stops_483.add.xml,./stops/stops_484.add.xml,./stops/stops_485.add.xml,./stops/stops_486.add.xml,./stops/stops_487.add.xml,./stops/stops_488.add.xml,./stops/stops_489.add.xml,./stops/stops_490.add.xml,./stops/stops_491.add.xml,./stops/stops_492.add.xml,./stops/stops_493.add.xml,./stops/stops_494.add.xml,./stops/stops_495.add.xml,./stops/stops_496.add.xml,./stops/stops_497.add.xml,./stops/stops_498.add.xml,./stops/stops_499.add.xml,./stops/stops_500.add.xml,./stops/stops_501.add.xml,./stops/stops_502.add.xml,./stops/stops_503.add.xml,./stops/stops_504.add.xml,./stops/stops_505.add.xml,./stops/stops_506.add.xml,./stops/stops_507.add.xml,./stops/stops_508.add.xml,./stops/stops_509.add.xml,./stops/stops_510.add.xml,./stops/stops_511.add.xml,./stops/stops_512.add.xml,./stops/stops_513.add.xml,./stops/stops_514.add.xml,./stops/stops_515.add.xml,./stops/stops_516.add.xml,./stops/stops_517.add.xml,./stops/stops_518.add.xml,./stops/stops_519.add.xml,./stops/stops_520.add.xml,./stops/stops_521.add.xml,./stops/stops_522.add.xml,./stops/stops_523.add.xml,./stops/stops_524.add.xml,./stops/stops_525.add.xml,./stops/stops_526.add.xml,./stops/stops_527.add.xml,./stops/stops_528.add.xml,./stops/stops_529.add.xml,./stops/stops_530.add.xml,./stops/stops_531.add.xml,./stops/stops_532.add.xml,./stops/stops_533.add.xml,./stops/stops_534.add.xml,./stops/stops_535.add.xml,./stops/stops_536.add.xml,./stops/stops_537.add.xml,./stops/stops_538.add.xml,./stops/stops_539.add.xml,./stops/stops_540.add.xml,./stops/stops_541.add.xml,./stops/stops_542.add.xml,./stops/stops_543.add.xml,./stops/stops_544.add.xml,./stops/stops_545.add.xml,./stops/stops_546.add.xml,./stops/stops_547.add.xml,./stops/stops_548.add.xml,./stops/stops_549.add.xml,./stops/stops_550.add.xml,./stops/stops_551.add.xml,./stops/stops_552.add.xml,./stops/stops_553.add.xml,./stops/stops_554.add.xml,./stops/stops_555.add.xml,./stops/stops_556.add.xml,./stops/stops_557.add.xml,./stops/stops_558.add.xml,./stops/stops_559.add.xml,./stops/stops_560.add.xml,./stops/stops_561.add.xml,./stops/stops_562.add.xml,./stops/stops_563.add.xml,./stops/stops_564.add.xml,./stops/stops_565.add.xml,./stops/stops_566.add.xml,./stops/stops_567.add.xml,./stops/stops_568.add.xml,./stops/stops_569.add.xml,./stops/stops_570.add.xml,./stops/stops_571.add.xml,./stops/stops_572.add.xml,./stops/stops_573.add.xml,./stops/stops_574.add.xml,./stops/stops_575.add.xml,./stops/stops_576.add.xml,./stops/stops_577.add.xml,./stops/stops_578.add.xml,./stops/stops_579.add.xml,./stops/stops_580.add.xml,./stops/stops_581.add.xml,./stops/stops_582.add.xml,./stops/stops_583.add.xml,./stops/stops_584.add.xml,./stops/stops_585.add.xml,./stops/stops_586.add.xml,./stops/stops_587.add.xml,./stops/stops_588.add.xml,./stops/stops_589.add.xml,./stops/stops_590.add.xml,./stops/stops_591.add.xml,./stops/stops_592.add.xml,./stops/stops_593.add.xml,./stops/stops_594.add.xml,./stops/stops_595.add.xml,./stops/stops_596.add.xml,./stops/stops_597.add.xml,./stops/stops_598.add.xml,./stops/stops_599.add.xml,./stops/stops_600.add.xml,./stops/stops_601.add.xml,./stops/stops_602.add.xml,./stops/stops_603.add.xml,./stops/stops_604.add.xml,./stops/stops_605.add.xml,./stops/stops_606.add.xml,./stops/stops_607.add.xml,./stops/stops_608.add.xml,./stops/stops_609.add.xml,./stops/stops_610.add.xml,./stops/stops_611.add.xml,./stops/stops_612.add.xml,./stops/stops_613.add.xml,./stops/stops_614.add.xml,./stops/stops_615.add.xml,./stops/stops_616.add.xml,./stops/stops_617.add.xml,./stops/stops_618.add.xml,./stops/stops_619.add.xml,./stops/stops_620.add.xml,./stops/stops_621.add.xml,./stops/stops_622.add.xml,./stops/stops_623.add.xml,./stops/stops_624.add.xml,./stops/stops_625.add.xml,./stops/stops_626.add.xml,./stops/stops_627.add.xml,./stops/stops_628.add.xml,./stops/stops_629.add.xml,./stops/stops_630.add.xml,./stops/stops_631.add.xml,./stops/stops_632.add.xml,./stops/stops_633.add.xml,./stops/stops_634.add.xml,./stops/stops_635.add.xml,./stops/stops_636.add.xml,./stops/stops_637.add.xml,./stops/stops_638.add.xml,./stops/stops_639.add.xml,./stops/stops_640.add.xml,./stops/stops_641.add.xml,./stops/stops_642.add.xml,./stops/stops_643.add.xml,./stops/stops_644.add.xml,./stops/stops_645.add.xml,./stops/stops_646.add.xml,./stops/stops_647.add.xml,./stops/stops_648.add.xml,./stops/stops_649.add.xml,./stops/stops_650.add.xml,./stops/stops_651.add.xml,./stops/stops_652.add.xml,./stops/stops_653.add.xml,./stops/stops_654.add.xml,./stops/stops_655.add.xml,./stops/stops_656.add.xml,./stops/stops_657.add.xml,./stops/stops_658.add.xml,./stops/stops_659.add.xml,./stops/stops_660.add.xml,./stops/stops_661.add.xml,./stops/stops_662.add.xml,./stops/stops_663.add.xml,./stops/stops_664.add.xml,./stops/stops_665.add.xml,./stops/stops_666.add.xml,./stops/stops_667.add.xml,./stops/stops_668.add.xml,./stops/stops_669.add.xml,./stops/stops_670.add.xml,./stops/stops_671.add.xml,./stops/stops_672.add.xml,./stops/stops_673.add.xml,./stops/stops_674.add.xml,./stops/stops_675.add.xml,./stops/stops_676.add.xml,./stops/stops_677.add.xml,./stops/stops_678.add.xml,./stops/stops_679.add.xml,./stops/stops_680.add.xml,./stops/stops_681.add.xml,./stops/stops_682.add.xml,./stops/stops_683.add.xml,./stops/stops_684.add.xml,./stops/stops_685.add.xml,./stops/stops_686.add.xml,./stops/stops_687.add.xml,./stops/stops_688.add.xml,./stops/stops_689.add.xml,./stops/stops_690.add.xml,./stops/stops_691.add.xml,./stops/stops_692.add.xml,./stops/stops_693.add.xml,./stops/stops_694.add.xml,./stops/stops_695.add.xml,./stops/stops_696.add.xml,./stops/stops_697.add.xml,./stops/stops_698.add.xml,./stops/stops_699.add.xml,./stops/stops_700.add.xml,./stops/stops_701.add.xml,./stops/stops_702.add.xml,./stops/stops_703.add.xml,./stops/stops_704.add.xml,./stops/stops_705.add.xml,./stops/stops_706.add.xml,./stops/stops_707.add.xml,./stops/stops_708.add.xml,./stops/stops_709.add.xml,./stops/stops_710.add.xml,./stops/stops_711.add.xml,./stops/stops_712.add.xml,./stops/stops_713.add.xml,./stops/stops_714.add.xml,./stops/stops_715.add.xml,./stops/stops_716.add.xml,./stops/stops_717.add.xml,./stops/stops_718.add.xml,./stops/stops_719.add.xml,./stops/stops_720.add.xml,./stops/stops_721.add.xml,./stops/stops_722.add.xml,./stops/stops_723.add.xml,./stops/stops_724.add.xml,./stops/stops_725.add.xml,./stops/stops_726.add.xml,./stops/stops_727.add.xml,./stops/stops_728.add.xml,./stops/stops_729.add.xml,./stops/stops_730.add.xml,./stops/stops_731.add.xml,./stops/stops_732.add.xml,./stops/stops_733.add.xml,./stops/stops_734.add.xml,./stops/stops_735.add.xml,./stops/stops_736.add.xml,./stops/stops_737.add.xml,./stops/stops_738.add.xml,./stops/stops_739.add.xml,./stops/stops_740.add.xml,./stops/stops_741.add.xml,./stops/stops_742.add.xml,./stops/stops_743.add.xml,./stops/stops_744.add.xml,./stops/stops_745.add.xml,./stops/stops_746.add.xml,./stops/stops_747.add.xml,./stops/stops_748.add.xml,./stops/stops_749.add.xml,./stops/stops_750.add.xml,./stops/stops_751.add.xml,./stops/stops_752.add.xml,./stops/stops_753.add.xml,./stops/stops_754.add.xml,./stops/stops_755.add.xml,./stops/stops_756.add.xml,./stops/stops_757.add.xml,./stops/stops_758.add.xml,./stops/stops_759.add.xml,./stops/stops_760.add.xml,./stops/stops_761.add.xml,./stops/stops_762.add.xml,./stops/stops_763.add.xml,./stops/stops_764.add.xml,./stops/stops_765.add.xml,./stops/stops_766.add.xml,./stops/stops_767.add.xml,./stops/stops_768.add.xml,./stops/stops_769.add.xml,./stops/stops_770.add.xml,./stops/stops_771.add.xml,./stops/stops_772.add.xml,./stops/stops_773.add.xml,./stops/stops_774.add.xml,./stops/stops_775.add.xml,./stops/stops_776.add.xml,./stops/stops_777.add.xml,./stops/stops_778.add.xml,./stops/stops_779.add.xml,./stops/stops_780.add.xml,./stops/stops_781.add.xml,./stops/stops_782.add.xml,./stops/stops_783.add.xml,./stops/stops_784.add.xml,./stops/stops_785.add.xml,./stops/stops_786.add.xml,./stops/stops_787.add.xml,./stops/stops_788.add.xml,./stops/stops_789.add.xml,./stops/stops_790.add.xml,./stops/stops_791.add.xml,./stops/stops_792.add.xml,./stops/stops_793.add.xml,./stops/stops_794.add.xml,./stops/stops_795.add.xml,./stops/stops_796.add.xml,./stops/stops_797.add.xml,./stops/stops_798.add.xml,./stops/stops_799.add.xml,./stops/stops_800.add.xml,./stops/stops_801.add.xml,./stops/stops_802.add.xml,./stops/stops_803.add.xml,./stops/stops_804.add.xml,./stops/stops_805.add.xml,./stops/stops_806.add.xml,./stops/stops_807.add.xml,./stops/stops_808.add.xml,./stops/stops_809.add.xml,./stops/stops_810.add.xml,./stops/stops_811.add.xml,./stops/stops_812.add.xml,./stops/stops_813.add.xml,./stops/stops_814.add.xml,./stops/stops_815.add.xml,./stops/stops_816.add.xml,./stops/stops_817.add.xml,./stops/stops_818.add.xml,./stops/stops_819.add.xml,./stops/stops_820.add.xml,./stops/stops_821.add.xml,./stops/stops_822.add.xml,./stops/stops_823.add.xml,./stops/stops_824.add.xml,./stops/stops_825.add.xml,./stops/stops_826.add.xml,./stops/stops_827.add.xml,./stops/stops_828.add.xml,./stops/stops_829.add.xml,./stops/stops_830.add.xml,./stops/stops_831.add.xml,./stops/stops_832.add.xml,./stops/stops_833.add.xml,./stops/stops_834.add.xml,./stops/stops_835.add.xml,./stops/stops_836.add.xml,./stops/stops_837.add.xml,./stops/stops_838.add.xml,./stops/stops_839.add.xml,./stops/stops_840.add.xml,./stops/stops_841.add.xml,./stops/stops_842.add.xml,./stops/stops_843.add.xml,./stops/stops_844.add.xml,./stops/stops_845.add.xml,./stops/stops_846.add.xml,./stops/stops_847.add.xml,./stops/stops_848.add.xml,./stops/stops_849.add.xml,./stops/stops_850.add.xml,./stops/stops_851.add.xml,./stops/stops_852.add.xml,./stops/stops_853.add.xml,./stops/stops_854.add.xml,./stops/stops_855.add.xml,./stops/stops_856.add.xml,./stops/stops_857.add.xml,./stops/stops_858.add.xml,./stops/stops_859.add.xml,./stops/stops_860.add.xml,./stops/stops_861.add.xml,./stops/stops_862.add.xml,./stops/stops_863.add.xml,./stops/stops_864.add.xml,./stops/stops_865.add.xml,./stops/stops_866.add.xml,./stops/stops_867.add.xml,./stops/stops_868.add.xml,./stops/stops_869.add.xml,./stops/stops_870.add.xml,./stops/stops_871.add.xml,./stops/stops_872.add.xml,./stops/stops_873.add.xml,./stops/stops_874.add.xml,./stops/stops_875.add.xml,./stops/stops_876.add.xml,./stops/stops_877.add.xml,./stops/stops_878.add.xml,./stops/stops_879.add.xml,./stops/stops_880.add.xml,./stops/stops_881.add.xml,./stops/stops_882.add.xml,./stops/stops_883.add.xml,./stops/stops_884.add.xml,./stops/stops_885.add.xml,./stops/stops_886.add.xml,./stops/stops_887.add.xml,./stops/stops_888.add.xml,./stops/stops_889.add.xml,./stops/stops_890.add.xml,./stops/stops_891.add.xml,./stops/stops_892.add.xml,./stops/stops_893.add.xml,./stops/stops_894.add.xml,./stops/stops_895.add.xml,./stops/stops_896.add.xml,./stops/stops_897.add.xml,./stops/stops_898.add.xml,./stops/stops_899.add.xml,./stops/stops_900.add.xml,./stops/stops_901.add.xml,./stops/stops_902.add.xml,./stops/stops_903.add.xml,./stops/stops_904.add.xml,./stops/stops_905.add.xml,./stops/stops_906.add.xml,./stops/stops_907.add.xml,./stops/stops_908.add.xml,./stops/stops_909.add.xml,./stops/stops_910.add.xml,./stops/stops_911.add.xml,./stops/stops_912.add.xml,./stops/stops_913.add.xml,./stops/stops_914.add.xml,./stops/stops_915.add.xml,./stops/stops_916.add.xml,./stops/stops_917.add.xml,./stops/stops_918.add.xml,./stops/stops_919.add.xml,./stops/stops_920.add.xml,./stops/stops_921.add.xml,./stops/stops_922.add.xml,./stops/stops_923.add.xml,./stops/stops_924.add.xml,./stops/stops_925.add.xml,./stops/stops_926.add.xml,./stops/stops_927.add.xml,./stops/stops_928.add.xml,./stops/stops_929.add.xml,./stops/stops_930.add.xml,./stops/stops_931.add.xml,./stops/stops_932.add.xml,./stops/stops_933.add.xml,./stops/stops_934.add.xml,./stops/stops_935.add.xml,./stops/stops_936.add.xml,./stops/stops_937.add.xml,./stops/stops_938.add.xml,./stops/stops_939.add.xml,./stops/stops_940.add.xml,./stops/stops_941.add.xml,./stops/stops_942.add.xml,./stops/stops_943.add.xml,./stops/stops_944.add.xml,./stops/stops_945.add.xml,./stops/stops_946.add.xml,./stops/stops_947.add.xml,./stops/stops_948.add.xml,./stops/stops_949.add.xml,./stops/stops_950.add.xml,./stops/stops_951.add.xml,./stops/stops_952.add.xml,./stops/stops_953.add.xml,./stops/stops_954.add.xml,./stops/stops_955.add.xml,./stops/stops_956.add.xml,./stops/stops_957.add.xml,./stops/stops_958.add.xml,./stops/stops_959.add.xml,./stops/stops_960.add.xml,./stops/stops_961.add.xml,./stops/stops_962.add.xml,./stops/stops_963.add.xml,./stops/stops_964.add.xml,./stops/stops_965.add.xml,./stops/stops_966.add.xml,./stops/stops_967.add.xml,./stops/stops_968.add.xml,./stops/stops_969.add.xml,./stops/stops_970.add.xml,./stops/stops_971.add.xml,./stops/stops_972.add.xml,./stops/stops_973.add.xml,./stops/stops_974.add.xml,./stops/stops_975.add.xml,./stops/stops_976.add.xml,./stops/stops_977.add.xml,./stops/stops_978.add.xml,./stops/stops_979.add.xml,./stops/stops_980.add.xml,./stops/stops_981.add.xml,./stops/stops_982.add.xml,./stops/stops_983.add.xml,./stops/stops_984.add.xml,./stops/stops_985.add.xml,./stops/stops_986.add.xml,./stops/stops_987.add.xml,./stops/stops_988.add.xml,./stops/stops_989.add.xml,./stops/stops_990.add.xml,./stops/stops_991.add.xml,./stops/stops_992.add.xml,./stops/stops_993.add.xml,./stops/stops_994.add.xml,./stops/stops_995.add.xml,./stops/stops_996.add.xml,./stops/stops_997.add.xml,./stops/stops_998.add.xml,./stops/stops_999.add.xml, vtype.add.xml" />
        <gui-settings-file value="settings.xml" />
    </input>

</configuration>
