<?xml version="1.0" encoding="UTF-8"?>

<!-- generated on 2022-07-06 22:57:43 by Eclipse SUMO polyconvert Version 1.13.0
<configuration xmlns:xsi="http://www.w3.org/2001/XMLSchema-instance" xsi:noNamespaceSchemaLocation="http://sumo.dlr.de/xsd/polyconvertConfiguration.xsd">

    <input>
        <net-file value="guiyang.net.xml"/>
        <osm-files value="guiyang.osm"/>
        <type-file value="typemap.xml"/>
    </input>

    <output>
        <output-file value="guiyang.poly.xml"/>
    </output>

    <processing>
        <poi-layer-offset value="5"/>
    </processing>

</configuration>
-->

<additional xmlns:xsi="http://www.w3.org/2001/XMLSchema-instance" xsi:noNamespaceSchemaLocation="http://sumo.dlr.de/xsd/additional_file.xsd">
    <location netOffset="-611989.22,-2900790.65" convBoundary="-38930.20,-60126.57,146867.72,163917.81" origBoundary="105.729321,25.675848,107.606354,27.686881" projParameter="+proj=utm +zone=48 +ellps=WGS84 +datum=WGS84 +units=m +no_defs"/>

    <poly id="100463976" type="building" color="255,230,230" fill="1" layer="-1.00" shape="52669.696720,38946.408527 52676.915582,38946.756557 52677.329222,38938.640346 52670.110498,38938.281239 52669.696720,38946.408527"/>
    <poly id="100463980" type="building" color="255,230,230" fill="1" layer="-1.00" shape="52588.143405,39120.462328 52589.171512,39128.807661 52597.543744,39127.785550 52596.515642,39119.440216 52588.143405,39120.462328"/>
    <poly id="1008994752" type="water" color="181,209,209" fill="1" layer="-4.00" shape="41714.095864,64858.591265 41746.908405,64877.948069 41780.268807,64853.945814 41771.336723,64827.323389 41747.428909,64827.852155 41724.186506,64841.507390 41714.095864,64858.591265"/>
    <poly id="1008994753" type="building" color="255,230,230" fill="1" layer="-1.00" shape="41689.349257,65294.751340 41662.409963,65306.721845 41668.159537,65319.533449 41695.098676,65307.574034 41689.349257,65294.751340"/>
    <poly id="1008994756" type="building" color="255,230,230" fill="0" layer="-1.00" shape="34975.094951,64549.674337 30928.228373,67733.876376 30859.991100,67755.195100"/>
    <poly id="1008994757" type="water" color="181,209,209" fill="0" layer="-4.00" shape="34860.346850,64476.622972 34942.210304,64408.340646"/>
    <poly id="1008994760" type="water" color="181,209,209" fill="0" layer="-4.00" shape="41834.971517,55836.135366 41884.246128,55873.395875 41905.965055,55889.824710 41910.598718,55893.326730"/>
    <poly id="1008994764" type="building" color="255,230,230" fill="0" layer="-1.00" shape="24191.977495,82946.692042 24239.807621,82984.935915 24341.094186,83081.638275 24258.102601,83310.139181"/>
    <poly id="1010764832" type="leisure" color="207,245,201" fill="1" layer="-2.00" shape="45762.507393,67821.143234 45733.350635,67878.538192 45676.408370,67883.709598 45621.178855,67846.488740 45601.902052,67776.710290 45610.171620,67683.698025 45661.117701,67684.334750 45740.586980,67678.259380 45762.507393,67821.143234"/>
    <poly id="1010764836" type="amenity" color="237,199,199" fill="1" layer="-1.00" shape="47403.201246,68792.682546 47406.328955,68308.635834 47466.113574,68303.452847 47635.413282,68373.903382 47682.681141,68885.313904 47403.201246,68792.682546"/>
    <poly id="1010764837" type="landuse" color="194,194,130" fill="1" layer="-3.00" shape="47951.575641,68753.590258 47886.867531,68440.943602 48092.007928,68393.054659 48187.810640,68725.410240 47951.575641,68753.590258"/>
    <poly id="1010764839" type="tourism" color="207,245,201" fill="1" layer="-2.00" shape="47423.232201,68257.892509 47262.512716,67754.945538 47103.245419,67793.011772 46808.744739,67936.630637 46867.800804,68140.093871 47010.794033,68358.764905 47118.635153,68545.161397 47219.114323,68751.498751 47340.606544,68795.470128 47360.031759,68477.497391 47299.207320,68321.154296 47423.232201,68257.892509"/>
    <poly id="1010764840" type="amenity" color="237,199,199" fill="1" layer="-1.00" shape="47626.565758,70963.532119 47669.865146,70881.977538 47733.550491,70915.426822 47690.250635,70996.992280 47626.565758,70963.532119"/>
    <poly id="1010764841" type="commercial" color="209,209,204" fill="1" layer="-3.00" shape="47536.470785,71316.487622 47474.724089,71281.534719 47348.778001,71264.029707 47309.421434,71284.750163 47265.260856,71264.158935 47307.016271,71053.767021 47322.134191,71029.205382 47449.754408,71054.387490 47478.956939,71040.619019 47487.000050,71060.753612 47523.624683,71068.286470 47620.097222,71074.815960 47580.463367,71256.957694 47545.535910,71255.916894 47536.470785,71316.487622"/>
    <poly id="1010764842" type="building" color="255,230,230" fill="1" layer="-1.00" shape="47387.526147,71170.461335 47397.025619,71119.491379 47508.584002,71140.083197 47499.094159,71191.042139 47387.526147,71170.461335"/>
    <poly id="1010764843" type="building" color="255,230,230" fill="1" layer="-1.00" shape="47638.625156,70960.017438 47671.997233,70895.666293 47721.474127,70921.057496 47688.091910,70985.408395 47638.625156,70960.017438"/>
    <poly id="1011038996" type="residential" color="235,235,227" fill="1" layer="-3.00" shape="111849.316278,67899.189934 111801.347148,67740.853966 111925.003319,67674.702923 111973.326001,67729.042246 111913.601290,67854.275861 111849.316278,67899.189934"/>
    <poly id="1011038997" type="residential" color="235,235,227" fill="1" layer="-3.00" shape="111863.710459,68013.834750 112106.046284,67657.123738 112155.869544,67711.490478 111987.757884,68010.095777 111863.710459,68013.834750"/>
    <poly id="1011038998" type="residential" color="235,235,227" fill="1" layer="-3.00" shape="111339.101001,68624.042370 111308.146804,68431.859328 111129.941682,68458.410793 111113.709172,68363.043415 111223.888235,68298.144259 111238.801069,68215.210221 111181.746830,68147.351739 111235.488142,67980.421577 111335.846075,67964.363618 111353.558088,67891.887280 111399.767609,67897.161429 111406.015742,68050.289558 111295.551711,68046.848237 111244.457550,68148.461546 111312.459588,68188.282708 111474.438627,68066.365569 111587.421208,68096.588261 111480.764487,68215.039380 111407.676139,68293.972065 111364.418042,68459.590949 111387.719755,68577.363330 111339.101001,68624.042370"/>
    <poly id="1011039008" type="residential" color="235,235,227" fill="1" layer="-3.00" shape="110471.289032,67499.446810 110130.304859,67306.250217 110257.009530,67164.343839 110399.041398,67221.136500 110379.570225,67364.931176 110542.390237,67309.765554 110667.345955,67373.753182 110471.289032,67499.446810"/>
    <poly id="1011039009" type="residential" color="235,235,227" fill="1" layer="-3.00" shape="110303.122921,67110.877314 110306.518854,66918.118004 110542.357967,66778.137037 110552.023402,66976.735483 110303.122921,67110.877314"/>
    <poly id="1011039010" type="residential" color="235,235,227" fill="1" layer="-3.00" shape="111598.751715,67064.505072 111689.645394,66820.888950 111634.827673,66303.227297 112050.323679,66540.859682 111945.583024,66821.681778 111598.751715,67064.505072"/>
    <poly id="1011039016" type="residential" color="235,235,227" fill="1" layer="-3.00" shape="106351.641218,67184.139987 106282.175251,66847.863533 106434.115758,66768.128871 106504.476222,66943.440499 106463.054533,67161.728481 106351.641218,67184.139987"/>
    <poly id="1011039017" type="residential" color="235,235,227" fill="1" layer="-3.00" shape="106972.018551,67763.925696 106975.234238,67578.670352 107164.397688,67739.191131 106972.018551,67763.925696"/>
    <poly id="1011109987" type="industrial" color="209,209,204" fill="1" layer="-3.00" shape="81641.758836,49834.745210 81565.737743,49760.391228 81684.086575,49627.606600 81791.673142,49733.139408 81641.758836,49834.745210"/>
    <poly id="1011109988" type="residential" color="235,235,227" fill="1" layer="-3.00" shape="76320.221692,43464.494053 76166.627525,43331.120005 76302.514063,43296.515745 76663.116862,43403.424831 76320.221692,43464.494053"/>
    <poly id="1011109989" type="residential" color="235,235,227" fill="1" layer="-3.00" shape="77249.957688,43868.044702 77192.769045,43720.731547 77432.281331,43744.372205 77717.116619,43834.837909 77777.249900,43943.213214 77634.209279,43980.055369 77249.957688,43868.044702"/>
    <poly id="1011109990" type="residential" color="235,235,227" fill="1" layer="-3.00" shape="77314.410589,43206.388680 77822.866759,43113.570201 77938.402684,43169.625166 77848.158753,43248.598023 77394.139833,43274.904905 77314.410589,43206.388680"/>
    <poly id="1011109991" type="residential" color="235,235,227" fill="1" layer="-3.00" shape="76158.875852,43534.159967 76237.290011,43772.714955 76161.520393,43918.046289 76020.804657,43797.862386 75912.475250,43816.342533 75997.872787,43661.699662 76158.875852,43534.159967"/>
    <poly id="1011109992" type="residential" color="235,235,227" fill="1" layer="-3.00" shape="75429.370754,43965.124738 75237.774465,43832.388361 75278.150716,43751.479194 75475.767392,43798.092097 75429.370754,43965.124738"/>
    <poly id="1011109993" type="landuse" color="194,194,130" fill="1" layer="-3.00" shape="76585.880539,41320.978400 76488.212001,41500.281413 76217.333613,41667.562031 76020.208661,41746.155106 75993.838004,41681.981955 76170.774443,41522.750664 76232.521770,41363.016502 76344.447381,41263.076400 76585.880539,41320.978400"/>
    <poly id="1011110002" type="water" color="181,209,209" fill="1" layer="-4.00" shape="72050.713505,41039.683907 71997.830171,41165.322012 72072.592031,41251.459763 72180.610742,41255.380571 72282.402656,41279.291176 72336.138254,41341.501785 72382.199475,41277.188614 72306.124785,41199.307465 72217.161757,41192.115094 72200.178381,41133.993200 72160.080689,41114.509468 72123.207616,41118.697284 72092.636440,41096.991132 72113.458025,41053.588167 72050.713505,41039.683907"/>
    <poly id="1011110003" type="forest" color="140,196,107" fill="1" layer="-3.00" shape="72748.871411,40724.930731 72554.234744,40960.731552 72553.326562,41106.024749 72645.548130,41134.531265 72864.780780,41085.727674 72971.613139,41008.125184 73058.030758,40864.083891 73092.103621,40807.876498 73026.012922,40697.047754 72748.871411,40724.930731"/>
    <poly id="1011110004" type="forest" color="140,196,107" fill="1" layer="-3.00" shape="72543.484410,40801.096884 72388.948124,40810.673017 72287.042819,40712.339729 72370.851454,40583.603828 72575.140878,40501.501552 72698.867367,40569.447570 72709.735969,40720.817661 72543.484410,40801.096884"/>
    <poly id="1011110005" type="forest" color="140,196,107" fill="1" layer="-3.00" shape="71602.387735,40749.709933 71417.335906,40816.745568 71328.496088,40800.109293 71233.165140,40656.979338 71262.699380,40585.344114 71440.825243,40628.661968 71476.083342,40695.910339 71598.486804,40690.591878 71602.387735,40749.709933"/>
    <poly id="1011110006" type="forest" color="140,196,107" fill="1" layer="-3.00" shape="71677.317989,40825.209587 71607.150659,40831.290577 71556.834079,40861.282528 71522.761452,40918.668115 71530.014394,40992.018123 71682.681000,41029.654390 71785.377944,40990.965977 71811.110255,40935.821003 71677.317989,40825.209587"/>
    <poly id="1011110007" type="forest" color="140,196,107" fill="1" layer="-3.00" shape="71891.448660,41212.221972 71785.725114,41214.242936 71732.105549,41143.770103 71766.665399,41053.315146 71860.268808,40986.139829 71940.823664,41000.300125 71952.682036,41084.343752 71891.448660,41212.221972"/>
    <poly id="1011110008" type="industrial" color="209,209,204" fill="1" layer="-3.00" shape="71529.289816,40020.135845 71503.339378,39842.554873 71756.197734,39769.404548 71813.008880,39948.616748 71529.289816,40020.135845"/>
    <poly id="1011110009" type="landuse" color="194,194,130" fill="1" layer="-3.00" shape="72440.138075,39292.520345 72777.538818,39616.394850 72584.783839,39721.112109 72476.123846,39596.672955 72205.631692,39573.858906 72128.575237,39974.434064 71961.890139,39920.047100 71820.318776,39935.724076 71792.965317,39773.480331 71483.945802,39786.748892 71482.458620,39725.294404 71672.380107,39651.236931 71829.395194,39635.780711 72018.731451,39520.365297 72106.170731,39469.646070 72186.018842,39533.406849 72327.083143,39553.174546 72411.589073,39541.398108 72455.661332,39451.059931 72406.167100,39341.650126 72440.138075,39292.520345"/>
    <poly id="1011110034" type="landuse" color="194,194,130" fill="1" layer="-3.00" shape="71623.327629,36471.129080 71541.091573,36672.429156 71701.885202,36732.805893 71629.942710,36843.433916 71718.367776,36939.991362 71866.142303,36864.695916 72035.666991,36734.631935 72089.915623,36605.888229 72024.762446,36348.867364 71721.358085,36211.981276 71737.600761,36331.324296 71848.328590,36438.630513 71882.213564,36580.567155 72027.547421,36674.965643 71937.850932,36770.443412 71623.327629,36471.129080"/>
    <poly id="1011110038" type="industrial" color="209,209,204" fill="1" layer="-3.00" shape="72122.745789,36580.930717 71986.110516,36828.305604 72071.288173,37018.597380 72170.698968,37044.852585 72179.481278,37177.319776 72324.744762,37237.314783 72508.991441,37147.815640 72605.188675,36986.126806 72734.359987,37008.085231 72915.782398,37114.707477 72996.973449,37004.796185 73116.836962,37013.625570 73209.450703,37098.874726 73271.817226,37058.414040 73174.639050,36960.111208 73063.200909,36861.591443 73036.658395,36643.774219 72954.298722,36669.762745 72746.675076,36567.492925 72761.850961,36422.362559 72697.047810,36220.526004 72748.256451,36130.280396 72486.863290,35965.782621 72435.502418,36066.664740 72177.984614,36127.949457 72047.646818,36267.873798 72065.784211,36411.124314 72122.745789,36580.930717"/>
    <poly id="1011110053" type="landuse" color="194,194,130" fill="1" layer="-3.00" shape="70131.270031,36646.245945 69907.141290,36542.015530 69841.390456,36579.363337 69934.134745,36824.230779 69875.828380,36939.328015 69977.143364,37132.880827 70042.429370,37278.217654 69981.600803,37450.045759 70159.838384,37756.282167 70437.358569,37712.609420 70385.267903,37482.601005 70401.008242,37009.405562 70338.481644,36566.329467 70269.705983,36141.016350 70215.402872,36170.026804 70176.563436,36269.222680 70131.270031,36646.245945"/>
    <poly id="1011110054" type="landuse" color="194,194,130" fill="1" layer="-3.00" shape="70414.141155,36299.418845 70337.205237,35817.398867 70458.533228,35811.685176 70491.551330,35596.268064 70652.102762,35570.273340 70618.090947,36064.105637 70474.597221,36154.369440 70490.362172,36307.954233 70414.141155,36299.418845"/>
    <poly id="1011110055" type="landuse" color="194,194,130" fill="1" layer="-3.00" shape="70593.340099,36434.485310 70590.679361,36620.550995 70456.196358,36603.746901 70422.794929,36427.582128 70593.340099,36434.485310"/>
    <poly id="1011110056" type="landuse" color="194,194,130" fill="1" layer="-3.00" shape="70591.954540,37263.738332 70574.370527,37446.598896 70506.866750,37457.545493 70487.062592,37376.870351 70487.461986,37244.370583 70591.954540,37263.738332"/>
    <poly id="1011110057" type="landuse" color="194,194,130" fill="1" layer="-3.00" shape="70459.422934,37739.718481 70667.382198,38059.785039 70779.348775,38601.772463 70711.879106,38923.826584 70266.508420,38566.146079 70243.688612,38382.719164 70381.184078,38396.595758 70360.205726,38293.575840 70209.409261,38267.608720 70141.310955,37796.219212 70459.422934,37739.718481"/>
    <poly id="1011110060" type="landuse" color="194,194,130" fill="1" layer="-3.00" shape="70791.221614,41046.801845 70914.006685,41161.079672 70789.926221,41202.426741 70657.377701,41177.090180 70232.696315,40948.793722 70148.312402,40916.649607 70093.545892,40791.173357 70370.908838,40973.275874 70619.442808,41062.157713 70791.221614,41046.801845"/>
    <poly id="1011110062" type="landuse" color="194,194,130" fill="1" layer="-3.00" shape="70616.893769,40121.724160 70427.938386,39953.060021 70243.596771,40054.507273 70077.468439,40267.790889 70155.600820,40275.466826 70303.372153,40159.433911 70417.645649,40210.766323 70324.420572,40336.010468 70650.616335,40334.119464 70616.893769,40121.724160"/>
    <poly id="1011110063" type="landuse" color="194,194,130" fill="1" layer="-3.00" shape="70668.281143,40416.881395 70708.901482,40608.743130 70825.388262,40636.664001 70956.974362,40598.239190 71014.528548,40463.101599 70999.493239,40394.438529 71114.771980,40375.472004 71399.580472,40367.376680 71422.537498,40278.626700 71010.894529,40256.776908 70926.485492,40292.132821 70866.926122,40237.834900 70897.303720,39829.449229 70812.497089,39826.349407 70762.728674,40207.264424 70673.453308,40319.443024 70668.281143,40416.881395"/>
    <poly id="1011110067" type="residential" color="235,235,227" fill="1" layer="-3.00" shape="67841.062895,39423.097112 67665.793803,39417.812385 67625.223675,39352.540378 67788.955960,39240.449474 67848.286642,39245.031215 67841.062895,39423.097112"/>
    <poly id="1011110068" type="residential" color="235,235,227" fill="1" layer="-3.00" shape="67777.410490,39571.069895 67782.848977,39467.995650 67899.488596,39474.117016 67894.049475,39577.169108 67777.410490,39571.069895"/>
    <poly id="1011110069" type="residential" color="235,235,227" fill="1" layer="-3.00" shape="67974.162461,39410.913092 67989.597892,39252.653564 68131.987590,39316.549891 68129.568204,39421.539464 67974.162461,39410.913092"/>
    <poly id="1011110072" type="water" color="181,209,209" fill="0" layer="-4.00" shape="69361.615614,39430.567050 69243.582841,39443.892666 69156.904445,39439.846660 69086.254739,39436.028816 69016.022550,39468.784088 68937.193445,39509.861356 68864.545036,39513.518088 68674.416622,39425.500852 68661.422799,39344.670548 68613.511898,39266.160320 68543.338934,39228.600149 68482.152020,39222.105164 68451.323806,39268.551891 68370.077324,39280.533455 68308.859489,39342.496042 68216.717632,39325.248507 68121.355858,39268.586137 68023.058349,39219.373717 67865.978993,39193.710777 67759.223798,39210.023700 67635.265027,39309.544398 67593.017740,39363.344900 67611.202405,39411.414449 67635.575340,39487.716334"/>
    <poly id="1011110081" type="industrial" color="209,209,204" fill="1" layer="-3.00" shape="68461.430719,39753.480492 68585.284571,39461.747093 68923.836459,39587.503707 68996.288211,39596.975354 69018.231253,39578.526916 69077.267424,39603.742878 68953.537898,39952.673375 68461.430719,39753.480492"/>
    <poly id="1011110082" type="industrial" color="209,209,204" fill="1" layer="-3.00" shape="68981.879826,39967.713409 69117.771392,39622.601454 69201.025891,39655.054287 69128.268428,39839.702659 69292.682888,39903.825982 69233.693394,40053.509973 69165.800203,40027.025930 69177.273450,39997.902218 69109.052544,39971.314125 69093.362228,40011.148591 68981.879826,39967.713409"/>
    <poly id="1011110083" type="building" color="255,230,230" fill="1" layer="-1.00" shape="69177.899382,39819.908114 69266.813685,39599.875707 69754.218038,39798.102230 69663.417071,40017.151966 69177.899382,39819.908114"/>
    <poly id="1011110084" type="landuse" color="194,194,130" fill="1" layer="-3.00" shape="70275.641337,39857.115260 70160.980147,39766.397273 69717.477916,39531.271519 69339.088752,39555.892699 69090.048221,39500.783772 68937.265235,39570.818095 68574.641663,39414.702373 68423.195384,39790.448035 69835.905709,40349.666501 69925.500747,40347.188211 70275.641337,39857.115260"/>
    <poly id="1011110088" type="industrial" color="209,209,204" fill="1" layer="-3.00" shape="69481.774574,39152.284755 69209.561599,38999.543410 68882.919064,38998.453311 68579.384862,39043.772697 68587.166318,39165.572374 68643.375462,39138.012475 68725.295963,39224.827674 68786.459291,39225.251205 68829.520036,39266.993658 68801.265429,39312.445596 68867.897633,39388.119466 69029.405365,39306.528820 69201.414003,39321.969176 69362.387485,39278.182861 69481.774574,39152.284755"/>
    <poly id="1011110090" type="commercial" color="209,209,204" fill="1" layer="-3.00" shape="68782.290478,38316.331969 68741.451985,38214.530200 68875.810934,38159.489708 68908.326141,38215.033408 68915.402045,38243.788737 68884.888227,38284.665441 68782.290478,38316.331969"/>
    <poly id="1011110091" type="landuse" color="194,194,130" fill="1" layer="-3.00" shape="69332.181329,38055.878599 69643.647132,38045.426705 69611.239913,38219.134477 69455.101170,38253.391336 69301.092342,38243.013414 69332.181329,38055.878599"/>
    <poly id="1011110097" type="building" color="255,230,230" fill="1" layer="-1.00" shape="65793.802349,38136.486188 65834.436385,38083.721330 65844.611939,38091.475536 65836.564293,38101.923222 65841.671758,38105.817221 65816.950051,38137.938955 65810.619714,38133.130394 65802.775081,38143.314992 65793.802349,38136.486188"/>
    <poly id="1011110098" type="building" color="255,230,230" fill="1" layer="-1.00" shape="65779.070280,38269.104452 65776.580441,38251.130220 65839.527798,38242.489123 65842.017398,38260.474451 65779.070280,38269.104452"/>
    <poly id="1011110099" type="building" color="255,230,230" fill="1" layer="-1.00" shape="65865.768592,38238.633155 65875.518104,38225.472297 65926.346462,38262.724902 65916.596766,38275.896802 65865.768592,38238.633155"/>
    <poly id="1011110100" type="parking" color="184,184,179" fill="1" layer="-1.00" shape="65736.228834,38183.519203 65707.120870,38162.138168 65703.369385,38133.143330 65752.167610,38105.168488 65767.425674,38139.354247 65736.228834,38183.519203"/>
    <poly id="1011110102" type="residential" color="235,235,227" fill="1" layer="-3.00" shape="66039.194889,37019.090115 65749.763110,37158.030038 65626.707546,37208.307362 65549.085802,37323.019789 65768.447723,37437.145022 65914.045900,37474.620584 66000.022204,37442.732527 65972.538947,37198.941102 66040.356981,37106.543570 66039.194889,37019.090115"/>
    <poly id="1011110103" type="industrial" color="209,209,204" fill="1" layer="-3.00" shape="65468.142836,37292.530576 65091.203836,37073.462614 65446.585391,36673.246820 65632.179487,36752.726920 65772.989194,36730.309439 65766.673495,36844.639870 65862.677305,36857.223813 65926.602584,37006.295696 65838.866901,37009.771371 65728.370153,36887.243397 65613.084618,36905.340310 65587.987013,36947.186095 65597.515918,37143.334510 65468.142836,37292.530576"/>
    <poly id="1011110104" type="building" color="255,230,230" fill="1" layer="-1.00" shape="64635.485241,36548.169556 64695.172697,36477.459434 64852.390788,36608.735494 64792.672611,36679.477729 64635.485241,36548.169556"/>
    <poly id="1011110105" type="residential" color="235,235,227" fill="1" layer="-3.00" shape="65248.428481,36479.166093 65484.673957,36239.528028 65697.769576,36375.680325 65410.769762,36604.282169 65248.428481,36479.166093"/>
    <poly id="1011110106" type="building" color="255,230,230" fill="1" layer="-1.00" shape="65296.275375,36360.714184 65260.958287,36392.113759 65140.282950,36390.439122 65111.383365,36366.591774 65145.945610,36322.050867 65251.509862,36325.388366 65296.275375,36360.714184"/>
    <poly id="1011110107" type="landuse" color="194,194,130" fill="1" layer="-3.00" shape="65975.112336,36773.447756 65922.415355,36495.099516 66059.273686,36283.173453 66194.019859,36222.214806 66144.475743,36596.680324 66093.164002,36760.090763 65975.112336,36773.447756"/>
    <poly id="1011110108" type="building" color="255,230,230" fill="1" layer="-1.00" shape="64842.062034,36339.191057 64773.550084,36445.402362 64926.509926,36543.057402 64995.042985,36436.824982 64842.062034,36339.191057"/>
    <poly id="1011110109" type="parking" color="184,184,179" fill="1" layer="-1.00" shape="64476.435795,36050.172243 64367.878008,36263.446209 64564.572577,36359.019174 64690.322301,36198.506270 64476.435795,36050.172243"/>
    <poly id="1011110111" type="aeroway" color="grey" fill="1" layer="-2.00" shape="66920.963270,34944.640263 66860.100382,34954.093093 66869.636452,35014.793422 66930.498910,35005.351731 66920.963270,34944.640263"/>
    <poly id="1011110111#1" type="building" color="255,230,230" fill="1" layer="-1.00" shape="66920.963270,34944.640263 66860.100382,34954.093093 66869.636452,35014.793422 66930.498910,35005.351731 66920.963270,34944.640263"/>
    <poly id="1011110112" type="aeroway" color="grey" fill="1" layer="-2.00" shape="66817.792138,34692.518485 66801.978372,34608.848890 66871.954104,34595.766897 66887.777252,34679.447820 66817.792138,34692.518485"/>
    <poly id="1011110112#1" type="building" color="255,230,230" fill="1" layer="-1.00" shape="66817.792138,34692.518485 66801.978372,34608.848890 66871.954104,34595.766897 66887.777252,34679.447820 66817.792138,34692.518485"/>
    <poly id="1011110113" type="aeroway" color="grey" fill="1" layer="-2.00" shape="66844.319809,34539.810682 66807.872182,34312.291614 66865.883464,34303.108678 66934.086047,34286.511689 66990.152826,34199.826204 67110.870531,35018.527623 66982.711955,35040.588245 66901.031476,34530.831397 66844.319809,34539.810682"/>
    <poly id="1011110116" type="industrial" color="209,209,204" fill="1" layer="-3.00" shape="66754.799760,35973.058553 66635.000749,35976.069456 66502.732870,35926.384956 66461.123117,35800.115793 66474.915903,35758.102375 66540.188056,35743.069579 66658.113637,35672.494890 66721.188176,35679.948116 66754.799760,35973.058553"/>
    <poly id="1011110117" type="parking" color="184,184,179" fill="1" layer="-1.00" shape="66541.566920,36116.395724 66567.600298,36007.958843 66652.274085,36022.273614 66646.962844,36131.931012 66541.566920,36116.395724"/>
    <poly id="1011110118" type="commercial" color="209,209,204" fill="1" layer="-3.00" shape="66738.290091,36987.262216 66450.881714,37042.788923 66293.094418,36873.100318 66261.972703,36690.289494 66337.430503,36431.546564 66435.032775,36409.829109 66428.042714,36213.958650 66475.547997,36188.560824 66611.194615,36336.367358 66725.183979,36372.943919 66808.369939,36899.653594 66738.290091,36987.262216"/>
    <poly id="1011110122" type="aeroway" color="grey" fill="0" layer="-2.00" shape="68125.794076,37938.600659 68035.526202,37954.479891"/>
    <poly id="1011110123" type="aeroway" color="grey" fill="0" layer="-2.00" shape="67576.706337,38167.070316 67582.023694,38187.877213 67593.063369,38210.626217 67606.974100,38229.038752 67616.462802,38238.081234 67676.547999,38279.992416 67692.597712,38288.728444 67722.828789,38295.935637 67747.381234,38298.807898 67783.369261,38295.591784 67966.193278,38266.533488 67988.729406,38260.468838 68007.929794,38245.049324 68019.192647,38232.853161 68027.937669,38219.014771 68031.350481,38209.489138 68030.879421,38190.611944"/>
    <poly id="1011110124" type="aeroway" color="grey" fill="0" layer="-2.00" shape="67539.530800,37655.448364 67573.975802,37650.115574"/>
    <poly id="1011110125" type="aeroway" color="grey" fill="0" layer="-2.00" shape="67592.563663,37819.169941 67595.093458,37814.307856 67596.969587,37809.159555 67598.170877,37803.813384 67598.652484,37798.623297 67598.486644,37793.413017 67597.672266,37788.260096 67573.975802,37650.115574 67567.906004,37614.771287 67555.975566,37560.374349 67550.983043,37528.491342 67546.210129,37497.996521 67529.981041,37394.241015 67524.059026,37356.161918 67518.640708,37321.236837 67509.679408,37269.674096 67489.101078,37147.740580 67477.589758,37066.301665 67474.875097,37045.320944 67465.857963,36983.518913 67454.958336,36922.344201 67442.977838,36851.558421 67442.195998,36846.915695 67437.332292,36816.452944 67432.111105,36783.769033 67419.046079,36701.488452 67414.292928,36671.658878 67409.036094,36638.664230 67408.679254,36636.398751 67392.085394,36532.162100 67381.099955,36462.132853 67346.654739,36248.711218 67340.850326,36212.096644 67334.287126,36170.606996 67301.895122,35967.685759 67290.871531,35896.736479 67248.148400,35641.535926 67235.475119,35559.538339 67211.862008,35426.815089 67210.334477,35417.053744 67200.456144,35353.899363 67184.011082,35248.701467 67180.837085,35228.412561 67173.812229,35183.503801 67166.064694,35133.975357 67157.612836,35079.938297 67134.543802,34932.430337 67123.740463,34862.670146 67118.905497,34831.443542 67113.677112,34798.416360 67108.050122,34762.535867 67069.114893,34514.481535 67058.536854,34447.073744 67048.681709,34384.263493 67035.533481,34300.364975 67029.540980,34262.074950 67028.903951,34255.606008 67029.263817,34249.128870 67030.608752,34242.776338 67032.916653,34236.703232 67036.115743,34231.052594 67039.668518,34226.481735 67043.802144,34222.428724 67048.455738,34218.970274 67053.538677,34216.171598 67058.950524,34214.086694"/>
    <poly id="1011110126" type="aeroway" color="grey" fill="0" layer="-2.00" shape="68190.009199,38008.429619 68185.858744,38025.723507 68180.787449,38036.954292 68172.956425,38048.146113 68162.720721,38055.325990 68153.524442,38060.171424 68057.290703,38078.005085"/>
    <poly id="1011110129" type="landuse" color="194,194,130" fill="1" layer="-3.00" shape="68229.935965,39283.915539 68225.267919,39214.450557 68279.337679,39190.836903 68329.822166,39087.468582 68421.493374,39071.888814 68504.114459,39162.136331 68393.945251,39219.649550 68229.935965,39283.915539"/>
    <poly id="1011110130" type="industrial" color="209,209,204" fill="1" layer="-3.00" shape="68204.437933,39487.031928 68193.061283,39825.367451 68435.653918,39936.625161 68456.031079,39895.659626 68361.780266,39827.752657 68488.137660,39491.974420 68204.437933,39487.031928"/>
    <poly id="1011110132" type="landuse" color="194,194,130" fill="1" layer="-3.00" shape="68923.907717,40527.626235 68729.353745,40260.245038 68966.531228,40286.059049 69084.770275,40407.045521 68923.907717,40527.626235"/>
    <poly id="1011110133" type="residential" color="235,235,227" fill="1" layer="-3.00" shape="67528.648136,41098.540075 66912.713735,40982.384943 67012.658375,40715.634182 67597.670284,40836.089028 67528.648136,41098.540075"/>
    <poly id="1011110134" type="industrial" color="209,209,204" fill="1" layer="-3.00" shape="66001.931538,39442.173411 65638.647128,39600.137827 65808.751068,40007.716877 66189.953308,39841.742054 66001.931538,39442.173411"/>