<polygons>
<poly id="route263" color="10,192,250" layer="100" type="route" shape="51221.2,57045.34 51019.86,57040.39 50943.17,57036.78 50876.08,57026.31 50778.01,57002.58 50710.31,56979.46 50641.57,56950.69 50570.41,56908.52 49885.47,56414.24 49810.18,56360.38 49673.51,56305.57 49481.54,56253.85 49467.59,56250.02 49467.4,56249.97 49464.38,56236.12 49464.48,56235.95 49472.8,56220.74 49507.26,56154.82 49529.91,56094.18 49544.86,56034.03 49553.04,55970.12 49554.25,55954.93 49556.29,55905.02 49553.53,55850.24 49541.38,55781.27 49522.53,55703.16 49440.06,55409.04 49431.61,55374.14 49417.53,55307.32 49400.67,55230.09 49326.75,54962.59 49322.72,54948.02 49312.4,54910.69 49212.73,54549.53 49125.06,54241.22 49100.89,54140.89 49100.86,54140.23 49100.14,54123.82 49085.34,53788.77 49084.75,53707.61 49084.64,53692.0 49084.23,53634.37 49097.8,53537.89 49127.87,53448.92 49231.59,53234.0 49228.32,53227.29 49176.62,53216.04 49008.92,53171.19 48888.58,53125.96 48787.73,53072.19 48777.43,53066.35 48777.26,53066.24 48765.61,53058.43 48745.81,53045.15 48644.09,52971.13 48522.73,52870.45 48499.25,52845.59 48491.79,52837.7 48488.22,52833.92 48479.03,52824.18 48417.69,52759.24 48417.69,52759.24 48389.56,52729.45 48312.64,52613.34 48303.88,52599.27 48263.25,52530.17 48179.82,52365.99 48052.02,52075.29 47961.98,51817.06 47879.32,51487.13 47863.83,51381.33 47862.47,51372.01 47825.12,51116.63 47820.48,51032.05 47819.67,51017.18 47809.04,50823.25 47828.79,50233.41 47820.03,50124.22 47819.28,50114.84 47809.67,49995.2 47753.35,49469.91 47751.8,49455.62 47751.37,49451.67 47750.24,49445.17 47748.17,49430.31 47738.43,49332.97 47738.41,49332.74 47712.61,49114.01 47712.57,49113.71 47681.65,48846.64 47681.61,48846.09 47679.8,48806.56 47666.82,48670.94 47663.82,48624.36 47662.97,48607.03 47662.89,48604.73 47674.86,48593.61 47677.97,48593.72 47697.68,48594.0 47740.64,48593.83 47883.96,48608.48 47884.24,48608.51 48075.2,48627.26 48082.19,48622.14 48110.63,48418.76 48112.63,48403.52 48129.4,48266.21 48150.65,48205.21 48211.44,48140.94 48211.44,48140.94 48253.49,48096.47 48268.66,48076.87 48283.69,48072.11 48629.12,48082.8 48634.8,48077.33 48635.78,47949.01 48635.78,47948.71 48635.85,47911.46 48639.28,47797.36 48639.66,47779.37 48639.7,47776.28 48645.83,47764.1 48655.63,47763.7 48667.81,47763.32 48936.26,47757.96 48950.69,47757.68 49119.89,47754.3 49141.99,47752.37 49145.28,47752.65 49152.74,47749.56 49154.44,47745.84 49156.67,47742.26 49162.35,47735.37 49182.84,47723.0 49192.29,47720.24 49208.27,47720.69 49222.79,47725.82 49237.29,47737.3 49241.7,47742.81 49243.49,47746.13 49253.45,47751.06 49267.45,47755.76 49283.14,47757.05 49413.89,47759.44 49414.1,47759.44 49422.23,47759.42 49434.5,47759.4 49456.52,47759.37 49465.94,47759.35 49481.85,47759.34 49499.5,47759.32 49738.48,47758.96 49738.81,47758.96 49837.91,47760.12 50042.62,47761.21 50042.62,47761.21 50239.5,47762.28 50239.5,47762.28 50336.21,47762.79 50350.19,47765.15 50388.57,47769.06 50394.9,47770.26 50406.88,47772.43 50425.81,47775.84 50437.86,47778.0 50469.23,47783.64 50481.89,47785.49 50845.93,47875.99 50875.6,47881.28 50928.02,47885.05 50978.65,47884.28 50978.86,47884.28 51119.12,47878.1 51128.3,47877.55 51143.58,47876.52 51152.84,47875.89 51270.26,47867.95 51284.63,47866.98 51768.5,47834.28 51794.94,47833.66 51818.59,47833.43 51824.08,47827.75 51822.87,47780.48 51816.01,47476.87 51809.9,47319.77 51789.53,47175.36 51780.23,47143.09 51776.2,47129.12 51753.8,47051.43 51713.22,46963.73 51707.17,46950.65 51698.47,46931.84 51601.02,46750.26 51588.62,46727.15 51576.01,46703.66 51569.65,46689.85 51568.07,46685.73 51560.77,46669.01 51525.91,46597.5 51519.03,46583.4 51467.68,46478.06 51420.75,46379.55 51390.45,46276.05 51381.78,46158.7 51395.91,45319.39 51396.13,45308.48 51396.4,45296.91 51405.41,45291.42 51413.6,45291.39 51428.08,45291.52 51429.98,45291.56 51441.39,45291.81 51583.42,45294.89 51597.8,45295.28 51635.42,45296.52 51953.89,45304.71 51968.43,45305.11 52251.31,45313.17 52339.41,45319.59 52376.88,45328.15 52384.33,45324.53 52463.91,45183.94 52541.04,45056.31 52548.31,45043.71 52575.99,44993.1 52583.37,44973.49 52596.26,44967.41 52607.7,44966.08 52624.54,44964.61 52631.12,44964.23 52682.48,44946.75 52690.41,44944.27 52706.29,44940.31 52734.64,44938.97 52844.19,44940.88 52871.64,44940.39 52886.13,44940.21 53191.51,44949.2 53208.43,44949.36 53216.4,44949.33 53284.89,44948.67 53292.93,44948.68 53414.51,44952.96 53518.19,44957.41 53562.65,44956.56 53656.43,44954.55 53806.88,44959.08 53830.49,44959.02 53830.49,44959.02 53850.07,44957.07 53864.5,44953.23 53884.15,44926.78 53884.44,44926.12 53888.63,44903.6 53886.25,44895.65 53886.62,44751.72 53886.63,44751.36 53888.05,44700.91 53883.94,44687.83 53882.45,44684.77 53882.24,44656.66 53882.15,44642.7 53882.08,44633.13 53882.15,44583.8 53880.15,44548.08 53863.94,44489.53 53860.09,44474.07 53862.51,44457.58 53870.06,44444.84 53880.52,44434.34 53890.52,44431.53 53906.4,44430.64 53928.43,44439.0 53937.09,44453.79 53940.18,44470.71 53937.37,44484.08 53931.02,44514.78 53922.73,44572.55 53916.59,44606.13 53912.14,44635.73 53913.57,44666.59 53917.16,44673.53 53925.28,44685.11 53947.93,44698.81 53977.97,44702.39 54046.73,44705.81 54124.14,44707.41 54130.97,44711.19 54148.49,44718.39 54172.98,44730.3 54168.15,44735.11 54055.93,44735.47 54053.52,44735.23" lineWidth="25.0">
    <param key="count" value="1"/>
</poly>
</polygons>
