<polygons>
<poly id="route47" color="230,71,71" layer="100" type="route" shape="50182.37,48833.54 50299.45,48528.44 50304.69,48514.8 50361.69,48366.25 50391.89,48279.78 50393.68,48180.0 50393.96,48164.42 50398.8,47893.02 50400.55,47854.43 50396.94,47837.07 50390.55,47815.1 50377.77,47801.66 50376.49,47801.03 50358.83,47794.06 50349.9,47793.17 50337.57,47791.96 50324.08,47790.63 50239.0,47788.35 50239.0,47788.35 50167.28,47786.42 50167.07,47786.42 49964.26,47784.93 49964.26,47784.93 49835.16,47783.99 49558.68,47789.51 49492.23,47788.79 49483.96,47788.7 49483.76,47788.7 49479.6,47788.65 49465.16,47788.5 49455.75,47788.4 49449.52,47788.33 49440.82,47788.24 49435.73,47788.18 49427.23,47788.1 49284.5,47786.55 49253.09,47787.72 49245.43,47791.15 49242.71,47797.29 49237.34,47803.96 49218.43,47817.59 49205.98,47821.36 49189.97,47821.08 49180.0,47817.67 49159.34,47802.76 49159.23,47802.61 49149.08,47782.76 49147.68,47770.22 49147.71,47768.91 49148.53,47763.91 49152.74,47749.56 49154.44,47745.84 49156.67,47742.26 49162.35,47735.37 49177.87,47717.72 49188.19,47706.06 49201.85,47642.24 49209.66,47576.47 49209.66,47576.47 49235.0,47363.33 49236.74,47349.03 49280.23,47001.36 49282.0,46987.03 49286.66,46948.39 49286.66,46948.39 49315.87,46706.37 49324.1,46639.43 49319.01,46633.64 49250.01,46633.31 49121.6,46632.25 49107.2,46632.13 48940.43,46630.76 48931.94,46621.62 48932.32,46615.88 48932.83,46601.38 48933.53,46390.05 48934.35,46388.21 48940.4,46374.56 48943.39,46367.79 49019.82,46279.24 49030.16,46259.89 49036.95,46247.19 49069.98,46185.44 49096.92,46117.35 49101.17,46092.23 49101.17,46092.23 49107.1,46057.24 49109.5,46043.04 49113.04,46022.11 49114.06,45985.01 49114.46,45970.62 49114.48,45970.01 49114.33,45956.11 49112.97,45928.58 49089.68,45820.75 49089.48,45820.19 49084.49,45806.64 49067.39,45761.73 49028.26,45688.13 49008.16,45665.04 48998.67,45654.13 48964.86,45615.25 48909.07,45568.32 48904.42,45556.12 48905.45,45552.15 48900.36,45538.31 48900.03,45537.78 48899.8,45537.53 48888.89,45532.88 48882.35,45523.96 48850.23,45339.77 48847.57,45326.15 48846.84,45322.81 48853.54,45311.59 49064.66,45231.26 49140.34,45206.12 49208.3,45181.56 49212.86,45174.13 49208.98,45151.27 49142.72,44737.12 49140.72,44722.91 49101.65,44402.61 49100.52,44393.27 49096.64,44361.07 49095.05,44349.64 49094.15,44344.01 49092.43,44332.95 49062.02,44134.43 49034.09,43893.73 49030.71,43863.3 49024.8,43810.56 49023.61,43801.4 49016.41,43751.98 49011.89,43720.9 48985.62,43540.54 48983.95,43529.03 48983.92,43528.84 48982.3,43516.08 48967.03,43382.85 48954.54,43331.8 48948.35,43306.93 48912.72,43012.64 48911.45,42995.96 48911.14,42986.83 48910.32,42967.87 48908.68,42936.6 48905.48,42876.88 48899.21,42797.64 48905.64,42760.28 48913.72,42749.91 48931.31,42743.64 48978.14,42738.78 49007.62,42726.06 49034.1,42693.54 49079.17,42635.15 49139.28,42571.39 49207.13,42517.37 49846.67,42008.35 49846.67,42008.35 49897.47,41967.91 49909.18,41958.6 50006.04,41881.51 50080.56,41826.54 50158.15,41788.46 50178.27,41778.88 50192.41,41772.78 50625.92,41604.65 50697.03,41576.27 50765.66,41557.25 50865.33,41537.54 51037.19,41508.67 51063.05,41502.15 51094.37,41482.97 51111.87,41463.44 51188.24,41338.38 51199.71,41310.69 51204.24,41295.22 51206.43,41264.93 51200.23,41223.8 51132.43,41001.13 51124.12,40960.25 51132.27,40912.2 51156.25,40865.25 51202.89,40816.43 51212.89,40805.79 51252.67,40762.61 51252.88,40762.39 51286.83,40727.64 51287.03,40727.43 51418.76,40590.39 51441.78,40571.31 51441.97,40571.12 51479.52,40527.38 51497.44,40499.08 51532.29,40432.9 51572.67,40326.86 51586.19,40298.08 51604.39,40269.59 51627.19,40246.11 51655.35,40226.7 51686.08,40214.09 51706.4,40210.6 51720.74,40208.83 51723.16,40208.94 51735.39,40209.46 51750.85,40210.13 51758.61,40212.1 51776.26,40216.59 51781.59,40217.94 52130.53,40310.59 52139.71,40313.02 52320.43,40361.01 52334.36,40364.71 52591.55,40433.0 52618.81,40441.31 52642.78,40451.81 52654.94,40458.4 52686.76,40479.15 52740.23,40518.74 52790.59,40556.84 52816.78,40573.08 52839.91,40581.83 52865.16,40583.98 52889.5,40581.02 52911.46,40575.86 52987.18,40541.81 53012.92,40533.97 53028.88,40535.13 53048.42,40541.19 53067.81,40556.28 53282.45,40757.33 53314.12,40786.87 53322.05,40793.98 53380.81,40844.61 53404.37,40860.75 53423.69,40868.87 53432.64,40871.21 53437.61,40872.48 53464.34,40873.48 53480.51,40868.98 53499.57,40860.48 53519.85,40847.14 53520.1,40846.97 53587.1,40803.07 53672.26,40749.26 53703.89,40728.67 53707.7,40724.76 53727.96,40707.01 53785.89,40684.62 53897.33,40641.84 53904.68,40639.02 53960.97,40617.41 53968.73,40614.4 54028.17,40594.8 54088.18,40581.52 54141.08,40574.5 54261.91,40564.74 54330.8,40559.68 54339.7,40559.02 54489.22,40548.93 54560.37,40548.77 54645.64,40549.58 54681.62,40553.18 54686.86,40547.82 54679.75,40489.52 54676.98,40443.58 54681.64,40402.3 54692.75,40357.0 54694.95,40317.11 54697.12,40292.8 54706.33,40198.14 54723.51,40149.54 54741.82,40138.18 54794.8,40075.88 54826.07,40029.87 54844.85,39999.98 54866.0,39989.81 54890.55,39988.77 54921.79,39993.7 54921.97,39993.73 54962.98,39998.74 55015.76,39990.54 55016.28,39990.36 55119.28,39933.69 55122.73,39925.66 55120.74,39920.65 55121.33,39918.73 55127.71,39914.42 55136.48,39909.64 55157.19,39900.93 55168.24,39895.72 55197.35,39880.5 55262.48,39853.63 55268.66,39847.62 55464.24,39766.96 55639.19,39685.29 55734.12,39626.4 55734.37,39626.24 55749.44,39616.89 55781.45,39589.61 55794.2,39578.74 55859.39,39523.21 55899.58,39498.96 55901.1,39491.81 55700.85,39273.38 55657.97,39229.59 55550.7,39170.73 55443.12,39049.54 55367.38,38992.96 55323.49,38939.54 55310.99,38922.76 55310.88,38922.59 55318.63,38910.75 55318.83,38910.72 55336.22,38910.84 55359.31,38913.24 55548.08,38828.77 55615.97,38792.15 55628.71,38785.7 55628.88,38785.61 55638.4,38777.71 55661.93,38751.38 55681.3,38718.46 55688.31,38680.37 55709.4,38621.17 55736.08,38608.29 55765.04,38596.71 55859.04,38566.77 55948.69,38522.2 56006.68,38506.43 56008.53,38499.83 55973.07,38462.51 55967.9,38449.35 55957.43,38433.08 55926.27,38383.84 55901.98,38330.97 55893.22,38301.83 55889.91,38290.79 55884.72,38273.51 55878.8,38215.04 55862.73,38045.94 55858.76,38030.62 55855.3,38018.1 55844.68,37869.45 55844.01,37855.02 55843.82,37844.35 55843.82,37844.44 55837.86,37764.19 55837.83,37763.89 55837.46,37758.92 55836.92,37755.54 55835.82,37751.2 55836.09,37740.17 55836.68,37724.51 55838.27,37698.38 55840.37,37684.19 55844.97,37663.1 55885.42,37535.62 55892.21,37521.14 55898.03,37504.64 55898.08,37504.44 55901.03,37487.5 55903.1,37469.44 55900.8,37442.48 55888.58,37394.08 55872.24,37303.21 55861.07,37245.77 55862.0,37228.03 55862.26,37224.97 55841.47,37156.57 55790.65,37040.6 55749.44,36950.06 55716.93,36887.21 55693.97,36828.18 55656.99,36729.18 55645.93,36670.4 55649.68,36647.52 55650.13,36644.05 55648.69,36625.9 55640.74,36539.11 55623.13,36284.27 55617.33,36237.52 55609.82,36204.59 55593.46,36134.92 55593.43,36134.81 55583.72,36103.51 55518.68,35885.93 55474.68,35726.1 55474.6,35725.83 55453.74,35653.21 55453.67,35652.96 55423.36,35553.12 55389.42,35442.19 55374.96,35397.41 55349.31,35339.0 55302.72,35238.2 55282.37,35201.11 55270.12,35187.88 55264.49,35182.64 55252.74,35168.02 55243.82,35154.43 55182.58,35044.74 55147.8,34981.98 55145.99,34960.0 55156.35,34956.81 55166.92,34960.73 55167.0,34960.91 55174.23,34973.6 55180.79,34984.13 55280.06,35150.4 55291.74,35178.27 55311.53,35225.0 55332.85,35262.54 55363.25,35325.62 55383.99,35374.67 55409.26,35456.09 55465.79,35655.07 55484.58,35723.46 55484.58,35723.46 55530.34,35890.0 55603.87,36131.1 55603.89,36131.18 55617.54,36185.92 55627.4,36240.72 55628.87,36248.87 55628.92,36249.16 55639.36,36307.05 55641.99,36337.24 55660.86,36601.48 55662.04,36615.97 55664.9,36647.0 55674.97,36684.53 55688.08,36728.41 55739.29,36856.11 55767.42,36937.07 55854.99,37160.05 55863.54,37193.09" lineWidth="25.0">
    <param key="count" value="1"/>
</poly>
</polygons>
