<polygons>
<poly id="route48" color="255,255,0" layer="100" type="route" shape="60180.26,38506.23 60169.13,38557.0 60133.32,38688.21 60128.5,38705.89 59976.82,39235.62 59972.99,39242.82 59957.26,39293.32 59942.79,39340.68 59942.71,39340.94 59827.33,39690.91 59818.19,39713.57 59814.56,39722.78 59814.49,39722.97 59807.83,39724.7 59798.93,39720.83 59788.41,39716.68 59766.92,39709.09 59744.93,39704.93 59725.54,39706.02 59589.14,39729.44 59556.76,39733.47 59523.05,39736.73 59416.03,39744.26 59398.35,39744.03 59379.48,39741.25 59362.02,39735.46 59261.17,39701.07 59223.38,39691.71 59183.76,39687.2 59072.93,39682.74 59060.28,39683.86 59047.76,39689.07 59046.12,39690.64 59040.08,39697.03 59029.94,39713.44 59026.09,39718.2 59014.57,39731.08 59010.15,39735.59 58988.35,39753.04 58949.53,39780.16 58935.16,39788.35 58934.54,39788.53 58919.45,39792.83 58918.14,39793.21 58848.02,39802.16 58805.87,39805.75 58743.32,39811.08 58738.54,39810.95 58711.92,39807.76 58711.73,39807.69 58707.86,39805.93 58686.38,39792.66 58609.11,39727.43 58608.78,39727.21 58598.1,39722.0 58593.14,39720.18 58579.16,39717.58 58575.07,39717.73 58569.27,39716.31 58562.38,39713.92 58558.57,39711.97 58554.32,39708.64 58546.52,39705.45 58537.28,39702.44 58522.79,39701.47 58522.38,39701.5 58396.87,39725.7 58379.92,39736.01 58366.6,39747.35 58362.55,39751.62 58356.11,39759.82 58349.5,39768.42 58295.48,39840.14 58286.78,39851.79 58227.65,39931.76 58223.69,39939.14 58215.43,39953.58 58212.28,39958.82 58206.3,39972.12 58168.18,40099.45 58159.49,40135.48 58156.73,40164.73 58156.54,40173.89 58159.45,40226.61 58171.65,40280.09 58171.65,40280.09 58195.37,40384.02 58198.33,40396.64 58198.38,40396.83 58201.17,40408.69 58204.86,40424.69 58205.33,40450.49 58180.98,40631.61 58178.68,40647.36 58176.76,40661.96 58175.19,40675.46 58183.17,40823.02 58188.43,40919.78 58188.45,40920.06 58191.35,40961.41 58192.38,40985.07 58192.83,41009.1 58186.66,41055.94 58186.66,41055.94 58186.12,41073.09 58184.94,41081.58 58183.94,41087.47 58177.32,41118.04 58174.52,41131.1 58174.07,41133.23 58171.05,41147.67 58166.62,41169.28 58164.98,41176.66 58161.89,41188.48 58161.89,41188.48 58160.15,41195.13 58113.21,41378.59 58110.02,41392.85 58088.71,41504.68 58086.93,41513.97 58042.76,41745.77 58040.5,41760.09 58011.45,41993.56 58006.07,42023.44 58002.46,42037.39 57994.17,42061.53 57917.09,42280.55 57908.93,42299.4 57908.85,42299.58 57901.53,42315.51 57901.4,42315.66 57902.16,42314.73 57869.04,42355.39 57869.04,42355.39 57748.54,42503.31 57744.33,42524.93 57746.57,42538.13 57744.2,42571.28 57700.12,42721.05 57671.45,42816.93 57648.1,42912.29 57644.32,42927.49 57604.74,43084.5 57541.71,43234.11 57523.21,43261.04 57517.65,43266.97 57502.2,43283.4 57485.86,43300.8 57470.69,43319.32 57461.93,43340.72 57460.76,43362.22 57461.36,43386.68 57461.55,43394.15 57461.88,43407.05 57457.76,43435.8 57446.69,43458.67 57443.05,43471.07 57443.23,43474.41 57408.6,43519.76 57363.05,43576.3 57283.18,43651.35 57117.49,43793.03 57101.11,43807.64 57080.48,43826.02 57054.19,43849.45 57038.26,43861.65 56939.39,43939.93 56928.15,43949.12 56908.01,43966.08 56869.4,44004.08 56807.3,44059.68 56790.06,44075.12 56765.1,44097.47 56722.24,44124.39 56674.54,44146.27 56622.69,44163.12 56600.4,44168.46 56586.38,44171.81 56559.43,44178.26 56551.66,44180.12 56426.85,44209.98 56416.47,44212.58 56409.65,44218.16 56148.39,44489.87 56146.05,44489.83 55921.82,44241.85 55923.32,44239.21 56112.57,44276.13 56118.38,44275.98 56166.21,44251.86 56268.59,44216.36 56403.97,44191.58 56404.06,44191.56 56429.3,44185.51 56507.52,44167.4 56528.0,44158.5 56529.53,44157.76 56545.15,44136.69 56553.92,44106.74 56550.06,44081.7 56536.02,44053.3 56529.71,44043.48 56523.54,44034.23 56499.45,44004.7 56478.34,43983.6 56456.03,43966.37 56455.48,43966.1 56441.88,43962.3 56411.64,43962.83 56369.19,43972.91 56315.52,43993.23 56315.52,43993.23 56274.75,44008.67 56252.3,44018.32 56228.24,44028.67 56228.06,44028.75 56175.23,44053.15 56025.45,44115.04 55859.38,44190.58 55624.53,44277.04 55297.08,44394.28 55296.79,44394.38 55271.33,44402.77 55270.45,44402.97 54983.65,44440.53 54677.36,44445.95 54284.6,44431.46 54284.3,44431.45 54035.28,44422.56 54005.87,44421.6 53974.49,44420.57 53928.96,44419.96 53872.42,44418.24 53841.98,44417.31 53817.44,44416.56 53687.62,44412.61 53679.01,44412.33 53651.65,44411.42 53614.56,44410.38 53594.91,44408.73 53455.03,44396.99 53429.68,44394.87 53360.23,44389.05 53277.46,44370.81 53236.56,44358.81 53220.34,44354.05 53133.42,44328.55 53118.9,44324.29 52767.48,44221.18 52759.64,44218.87 52704.24,44202.63 52682.45,44196.44 52678.21,44195.31 52665.46,44191.92 52299.65,44094.63 52285.72,44090.92 52027.83,44022.33 51991.57,44017.05 51977.05,44015.79 51907.98,44013.67 51555.49,44040.45 51538.36,44041.89 51537.98,44041.92 51517.68,44047.7 51509.67,44050.36 51489.43,44065.91 51480.28,44092.09 51475.03,44260.68 51474.48,44275.14 51470.37,44364.17 51462.0,44609.76 51461.46,44621.06 51461.36,44622.77 51460.8,44633.84 51452.52,44817.73 51443.64,45063.03 51443.13,45077.43 51435.96,45286.07 51435.0,45297.43 51433.56,45308.15 51432.66,45319.41 51423.68,45690.87 51416.34,46096.18 51414.24,46176.37 51428.76,46292.92 51450.94,46366.34 51447.78,46372.82 51447.51,46372.79 51443.49,46377.93 51486.92,46469.46 51551.64,46599.15 51560.5,46616.9 51587.03,46670.08 51593.17,46683.89 51594.8,46688.08 51602.54,46704.77 51646.35,46786.64 51654.18,46801.26 51715.3,46915.49 51721.63,46928.3 51759.46,47011.79 51765.4,47024.91 51773.18,47042.08 51802.64,47137.47 51806.97,47151.51 51811.67,47166.71 51833.76,47321.1 51838.2,47476.01 51841.86,47632.13 51842.2,47646.53 51845.25,47776.21 51846.73,47826.76 51847.25,47844.57 51847.42,47850.45 51839.17,47862.7 51833.85,47862.89 51819.33,47863.61 51374.71,47892.42 51374.71,47892.42 51296.87,47897.46 51285.35,47898.21 51285.05,47898.23 51033.84,47914.51 51033.49,47914.53 50961.46,47917.37 50899.65,47916.05 50898.9,47916.0 50867.99,47912.44 50866.91,47912.24 50689.9,47866.54 50689.9,47866.54 50573.91,47836.59 50573.91,47836.59 50520.84,47822.89 50520.7,47822.86 50472.98,47814.73 50461.49,47813.29 50461.29,47813.26 50447.52,47809.45 50423.63,47804.08 50399.38,47799.72 50377.78,47796.79 50358.83,47794.06 50349.9,47793.17 50337.57,47791.96 50324.08,47790.63 50239.0,47788.35 50239.0,47788.35 50167.28,47786.42 50167.07,47786.42 49964.26,47784.93 49964.26,47784.93 49835.16,47783.99 49558.68,47789.51 49492.23,47788.79 49483.96,47788.7 49483.76,47788.7 49479.6,47788.65 49465.16,47788.5 49455.75,47788.4 49449.52,47788.33 49440.82,47788.24 49435.73,47788.18 49427.23,47788.1 49284.5,47786.55 49253.09,47787.72 49245.43,47791.15 49242.71,47797.29 49237.34,47803.96 49218.43,47817.59 49205.98,47821.36 49189.97,47821.08 49180.0,47817.67 49159.34,47802.76 49159.23,47802.61 49149.08,47782.76 49147.68,47770.22 49147.71,47768.91 49148.53,47763.91 49152.74,47749.56 49154.44,47745.84 49156.67,47742.26 49162.35,47735.37 49177.87,47717.72 49188.19,47706.06 49201.85,47642.24 49209.66,47576.47 49209.66,47576.47 49235.0,47363.33 49236.74,47349.03 49280.23,47001.36 49282.0,46987.03 49286.66,46948.39 49286.66,46948.39 49315.87,46706.37 49324.1,46639.43 49319.01,46633.64 49250.01,46633.31 49121.6,46632.25 49107.2,46632.13 48940.43,46630.76 48931.94,46621.62 48932.32,46615.88 48932.83,46601.38 48933.53,46390.05 48934.35,46388.21 48940.4,46374.56 48943.39,46367.79 49019.82,46279.24 49030.16,46259.89 49036.95,46247.19 49069.98,46185.44 49096.92,46117.35 49101.17,46092.23 49101.17,46092.23 49107.1,46057.24 49109.5,46043.04 49113.04,46022.11 49114.06,45985.01" lineWidth="20.0">
    <param key="count" value="1"/>
</poly>
</polygons>
