<?xml version="1.0" encoding="utf-8"?>
	<routes>
		<vType id="bus" accel="2.6" decel="4.5" sigma="0" length="20" maxSpeed="45" color="1,1,0" bordingDuration="1" personCapacity="50"/>
		<vehicle id="visualization" type="bus" depart="0" departPos="0.0">
			<route edges="719480770 542459804#0 702368338#1 702368338#2 702368338#3 586646594#0 586646594#1 586646594#2 586646594#3 220105623#0 220105623#1 220105623#2 220105623#3 220105623#4 220105623#5 220105623#6 220105623#7 220105623#8 220105623#9 220105623#10 220105623#11 220105623#12 220105623#13 220105623#14 220105623#15 460330156#5 460330156#6 460330156#7 -262115051#4 -262115051#3 -262115051#2 673132672 262115021#7 262115021#8 262115021#9 459589279#7 459589279#8 459589279#9 459589278#0 262115040#2 262115040#3 262115040#4 459589275#0 459589275#1 459589275#2 459589275#3 459589275#4 459589275#5 459589275#6 459589275#7 459589275#8 459589275#9 459589275#10 459589275#11 459589275#12 459589275#13 459589275#14 459589275#15 352255223#9 352255223#10 352255223#11 352255223#12 352255223#13 352255223#14 352255223#15 352255223#16 262115017#3 262115017#4 262115017#5 262115017#6 262115017#7 822503745#13 822503745#14 459862786#0 459862786#1 459862786#2 459862786#3 459862786#4 459862786#5 459862786#6 507873414 507873415 609515550 507873412#1 625317268 507873410#0 507873410#1 513377053 507871438#1 507871441 E3 504659006#3"/>
		</vehicle>
	</routes>
