<?xml version="1.0" encoding="utf-8"?>
	<routes>
		<vType id="bus" accel="2.6" decel="4.5" sigma="0" length="20" maxSpeed="45" color="1,1,0" bordingDuration="1" personCapacity="50"/>
		<vehicle id="visualization" type="bus" depart="0" departPos="0.0">
			<route edges="98571454#1 98571454#2 99286380 99286383#0 99286383#1 99310509#1 99310509#2 99310494#2 99310494#3 99310494#4 99310494#5 99310494#6 99310494#7 98870892#3 98870892#4 98870835#0 98870835#1 98870835#2 98870835#3 98870835#4 98870835#5 98870835#6 98870835#7 98870835#8 98870835#9 98870864#0 98870864#1 98870864#2 98870864#3 98870864#4 98870864#5 99289461#0 99289461#1 99289461#2 99289461#3 99289461#4 99289461#5 99289461#6 705369300 705369299#0 705369299#1 705369299#2 -823825728#3 -823825728#2 -823825728#1 -823825728#0 503969442#0 503969442#1 503969442#2 503969442#3 503969442#4 503969442#5 503969442#6 E0 E1 E2 625289866 459628523#0 504270393 504270395 609515585 609515584#0 609515584#1 306468084 306468085 220105619 1064429358#0 1064429358#1 1064429358#2 1064429358#3 1064429358#4 1064429358#5 1064429358#6 1064429358#7 1064429358#8 1064429358#9 1064429358#10 1064429358#11 1064429358#12 671094719#0 671094719#1 671094719#2 671094719#3 671094719#4 671094719#5 671094719#6 -E4 211701764#21.1060 211701764#22 211701764#23 211701764#24 211701764#25 211701764#26 211701764#27 211701764#28 211701764#29 211701764#30 459589276#0 459589276#1 459589276#2 459589276#3 459589276#4 459589276#5 459589276#6 459589276#7 459589276#8 459589276#9 459589276#10 459589276#11 459589276#12 459589276#13 459589276#14 459589276#15 459589276#16 459589276#17 459589276#18 459589276#19 459589276#20 459589276#21 459589276#22 262115040#6 262115040#7 262115040#8 262115040#9 262115040#0 459589278#0 262115040#2 459589278#2 459589278#3 459589278#4 459589278#5 459589278#6 593486793#2 593486793#3 198510254#2 198510254#3 198510254#4 198510254#5 198510254#6 198510254#7"/>
		</vehicle>
	</routes>
