<?xml version="1.0" encoding="utf-8"?>
<additional>
	<vType id="bus" accel="9.6" decel="9.5" sigma="0" length="10" maxSpeed="10" color="250,8,8" bordingDuration="1" personCapacity="50"/>
</additional>